Version 4
SHEET 1 1540 680
WIRE -112 -32 -192 -32
WIRE -16 -32 -32 -32
WIRE 96 -32 64 -32
WIRE 192 -32 176 -32
WIRE 544 -32 192 -32
WIRE 192 80 192 -32
WIRE -192 144 -192 -32
WIRE 192 160 192 144
WIRE 544 224 544 -32
WIRE 192 288 192 160
WIRE 368 288 192 288
WIRE 496 288 432 288
FLAG 192 352 0
FLAG -192 224 0
FLAG 544 288 0
SYMBOL voltage -192 128 R0
WINDOW 123 0 0 Left 0
WINDOW 39 0 0 Left 0
SYMATTR InstName V1
SYMATTR Value SINE(0 400 50)
SYMBOL cap 176 288 R0
SYMATTR InstName C1
SYMATTR Value 100n
SYMBOL Misc\\DIAC 368 320 R270
WINDOW 0 64 32 VTop 2
WINDOW 3 0 32 VBottom 2
SYMATTR InstName U2
SYMATTR Value DB3
SYMBOL res 176 64 R0
SYMATTR InstName POT
SYMATTR Value 5k
SYMBOL res -128 -16 R270
WINDOW 0 32 56 VTop 2
WINDOW 3 0 56 VBottom 2
SYMATTR InstName R3
SYMATTR Value 0.8
SYMBOL ind -32 -16 R270
WINDOW 0 32 56 VTop 2
WINDOW 3 5 56 VBottom 2
SYMATTR InstName L1
SYMATTR Value 12.5m
SYMBOL Misc\\SCR 528 224 R0
SYMATTR InstName U1
SYMATTR Value EC103M3
SYMBOL voltage 80 -32 R270
WINDOW 0 32 56 VTop 2
WINDOW 3 -32 56 VBottom 2
WINDOW 123 0 0 Left 0
WINDOW 39 0 0 Left 0
SYMATTR InstName V2
SYMATTR Value 180
TEXT -224 376 Left 2 !.tran 0 0.5 0 uic
TEXT -288 -168 Left 2 !.inc C:\\Users\\user\\Documents\\LTspiceXVII\\lib\\st_diacs.lib
TEXT -288 -136 Left 2 !.inc C:\\Users\\user\\Documents\\LTspiceXVII\\lib\\st_high-temperature_scr.lib
TEXT -288 -104 Left 2 !.inc C:\\Users\\user\\Documents\\LTspiceXVII\\lib\\Thyristor_SCR_EC103xx_SxSx_A_SPICE_Model_lib.lib
TEXT 264 112 Left 2 ;1k-350k
