Version 4
SHEET 1 880 680
WIRE 592 -112 448 -112
WIRE 448 -64 448 -112
WIRE 384 32 80 32
WIRE 448 64 448 16
WIRE 448 64 400 64
WIRE 656 64 448 64
WIRE 448 80 448 64
WIRE 656 80 656 64
WIRE 80 144 80 32
WIRE 112 144 80 144
WIRE 400 144 400 64
WIRE 400 144 336 144
WIRE 448 176 448 144
WIRE 464 176 448 176
WIRE 560 176 544 176
WIRE 656 176 656 144
WIRE 656 176 640 176
WIRE 80 208 32 208
WIRE 112 208 80 208
WIRE 384 208 384 32
WIRE 384 208 336 208
WIRE 560 208 560 176
WIRE 560 208 384 208
WIRE 32 224 32 208
WIRE 560 240 560 208
WIRE 368 272 336 272
FLAG 112 80 0
FLAG 592 -32 0
FLAG 592 -112 Vcc
FLAG 112 272 Vcc
FLAG 336 80 Vcc
FLAG 368 336 0
FLAG 32 304 0
FLAG 560 304 0
FLAG 80 208 Vout
SYMBOL Misc\\NE555 224 176 R0
SYMATTR InstName U1
SYMBOL voltage 592 -128 R0
WINDOW 123 0 0 Left 0
WINDOW 39 0 0 Left 0
WINDOW 0 27 42 Left 2
SYMATTR InstName Vcc
SYMATTR Value 5
SYMBOL cap 352 272 R0
WINDOW 3 29 49 Left 2
SYMATTR Value .01µ
SYMATTR InstName C1
SYMBOL res 16 208 R0
WINDOW 0 -48 30 Left 2
WINDOW 3 -54 53 Left 2
SYMATTR InstName R4
SYMATTR Value 1k
SYMBOL cap 544 240 R0
SYMATTR InstName C2
SYMATTR Value 10n
SYMBOL res 560 160 R90
WINDOW 0 0 56 VBottom 2
WINDOW 3 32 56 VTop 2
SYMATTR InstName R2
SYMATTR Value 80k
SYMBOL res 656 160 R90
WINDOW 0 0 56 VBottom 2
WINDOW 3 32 56 VTop 2
SYMATTR InstName R3
SYMATTR Value 20k
SYMBOL res 432 -80 R0
SYMATTR InstName R1
SYMATTR Value 500
SYMBOL diode 432 80 R0
SYMATTR InstName D1
SYMBOL diode 672 144 R180
WINDOW 0 24 64 Left 2
WINDOW 3 24 0 Left 2
SYMATTR InstName D2
TEXT 32 392 Left 2 !.tran 5ms
