Version 4
SHEET 1 880 680
WIRE 464 32 80 32
WIRE 384 80 336 80
WIRE 432 80 384 80
WIRE 80 144 80 32
WIRE 112 144 80 144
WIRE 368 144 336 144
WIRE 368 160 368 144
WIRE 432 160 368 160
WIRE 112 208 32 208
WIRE 368 208 336 208
WIRE 32 224 32 208
WIRE 368 240 368 208
WIRE 432 240 368 240
WIRE 464 240 464 32
WIRE 464 240 432 240
WIRE 368 272 336 272
WIRE 464 272 464 240
FLAG 112 80 0
FLAG 224 432 0
FLAG 224 352 Vcc
FLAG 112 272 Vcc
FLAG 384 80 Vcc
FLAG 368 336 0
FLAG 32 304 0
FLAG 32 128 Vcc
FLAG 464 336 0
SYMBOL Misc\\NE555 224 176 R0
SYMATTR InstName U1
SYMBOL voltage 224 336 R0
WINDOW 123 0 0 Left 0
WINDOW 39 0 0 Left 0
SYMATTR InstName V1
SYMATTR Value 5
SYMBOL res 416 64 R0
WINDOW 0 -46 36 Left 2
WINDOW 3 -48 58 Left 2
SYMATTR InstName POT
SYMATTR Value 10k
SYMBOL res 416 144 R0
WINDOW 0 -30 33 Left 2
WINDOW 3 -34 63 Left 2
SYMATTR InstName R1
SYMATTR Value 1k
SYMBOL cap 352 272 R0
WINDOW 3 29 49 Left 2
SYMATTR InstName C1
SYMATTR Value .1µ
SYMBOL res 16 208 R0
WINDOW 0 -48 30 Left 2
WINDOW 3 -54 53 Left 2
SYMATTR InstName R3
SYMATTR Value 10k
SYMBOL res 16 112 R0
WINDOW 0 -39 34 Left 2
WINDOW 3 -42 70 Left 2
SYMATTR InstName R2
SYMATTR Value 10k
SYMBOL cap 448 272 R0
SYMATTR InstName C2
SYMATTR Value 0.1µ
TEXT 34 392 Left 2 !.tran 10m
